/batch
/config,noeldb,1     ! force off writing results to database
*get,_wallstrt,active,,time,wall
! ANSYS input file written by Workbench version 15.0.7  Release
! File used for geometry attach: /HOME/uidg1626/.ansys/WB_sbav106x.vs.de.conti.de_uidg1626_17312_2/unsaved_project_files/dp0/SYS/DM/SYS.agdb
/title,unsaved_project--Static Structural (A5)
*DIM,_wb_ProjectScratch_dir,string,248
_wb_ProjectScratch_dir(1) = '/HOME/uidg1626/.ansys/WB_sbav106x.vs.de.conti.de_uidg1626_17312_2/unsaved_project_files/dp0/SYS/MECH/'
*DIM,_wb_SolverFiles_dir,string,248
_wb_SolverFiles_dir(1) = '/HOME/uidg1626/.ansys/WB_sbav106x.vs.de.conti.de_uidg1626_17312_2/unsaved_project_files/dp0/SYS/MECH/'
*DIM,_wb_userfiles_dir,string,248
_wb_userfiles_dir(1) = '/HOME/uidg1626/.ansys/WB_sbav106x.vs.de.conti.de_uidg1626_17312_2/unsaved_project_files/user_files/'
/com,--- Data in consistent NMM units.
/units,MPA
/nopr
/wb,file,start              !  signify a WB generated input file
/prep7
! Turn off shape checking because checks already performed inside WB mesher.
! See help system for more information.
SHPP,OFF,,NOWARN
/nolist
etcon,set             ! allow ANSYS to choose best KEYOP's for 180x elements
/com,*********** Nodes for the whole assembly ***********
nblock,3
(1i9,3e20.9e3)
        1     1.321182418E+01     3.814783303E+00     5.000000000E+00
        2     9.908868136E+00     3.814783303E+00     5.000000000E+00
        3     6.605912091E+00     3.814783303E+00     5.000000000E+00
        4     3.302956045E+00     3.814783303E+00     5.000000000E+00
        5     1.612488001E+01     7.629566607E+00     5.000000000E+00
        6     1.209366001E+01     7.629566607E+00     5.000000000E+00
        7     8.062440004E+00     7.629566607E+00     5.000000000E+00
        8     4.031220002E+00     7.629566607E+00     5.000000000E+00
        9     1.903793584E+01     1.144434991E+01     5.000000000E+00
       10     1.427845188E+01     1.144434991E+01     5.000000000E+00
       11     9.518967918E+00     1.144434991E+01     5.000000000E+00
       12     4.759483959E+00     1.144434991E+01     5.000000000E+00
       13     2.195099166E+01     1.525913321E+01     5.000000000E+00
       14     1.646324375E+01     1.525913321E+01     5.000000000E+00
       15     1.097549583E+01     1.525913321E+01     5.000000000E+00
       16     5.487747915E+00     1.525913321E+01     5.000000000E+00
       17     2.486404749E+01     1.907391652E+01     5.000000000E+00
       18     1.864803562E+01     1.907391652E+01     5.000000000E+00
       19     1.243202374E+01     1.907391652E+01     5.000000000E+00
       20     6.216011872E+00     1.907391652E+01     5.000000000E+00
! ... 404 like lines cut
/wb,elem,start            !  set before creation of elements
/com,*********** Elements for Body 1 "Solid" ***********
et,1,186
keyo,1,2,1          ! set full integration on SOLID186
eblock,19,solid,,60
(19i9)
        1        1        1        1        0        0        0        0       20        0        1        1      117       92       83       40      126       91       87
      132      374      360      131      264      373      368      263      129      412      372      359
        1        1        1        1        0        0        0        0       20        0        2        1       83       92      117       41       81       82       61
      131      360      374      132      268      355      315      267      130      356      357      316
        1        1        1        1        0        0        0        0       20        0        3        1        5      118      117       40       36      125      126
      128      152      411      132      254      255      423      264      129      150      414      412
        1        1        1        1        0        0        0        0       20        0        4        1      117      118        5       41       61       62       45
      132      411      152      128      267      314      280      266      130      316      318      151
        1        1        1        1        0        0        0        0       20        0        5        5        9      119      118       36       32      124      125
      149      169      413      152      245      246      422      255      150      167      416      414
        1        1        1        1        0        0        0        0       20        0        6        5      118      119        9       45       62       63       49
      152      413      169      149      280      317      289      279      151      318      320      168
        1        1        1        1        0        0        0        0       20        0        7        9       13      120      119       32       28      123      124
      166      186      415      169      236      237      421      246      167      184      418      416
        1        1        1        1        0        0        0        0       20        0        8        9      119      120       13       49       63       64       53
      169      415      186      166      289      319      298      288      168      320      322      185
        1        1        1        1        0        0        0        0       20        0        9       13       17      121      120       28       24      122      123
      183      203      417      186      226      228      420      237      184      200      419      418
        1        1        1        1        0        0        0        0       20        0       10       13      120      121       17       53       64       65       57
      186      417      203      183      298      321      306      297      185      322      324      201
! ... 101 like lines cut
!Material Id = {26F51ABF-D3DF-FC2A-028D-5955028D5955}
/wb,elem,end               !  done creating elements
/com,*********** Send User Defined Coordinate System(s) ***********
csys,0
toffst,273.15,  ! Temperature offset from absolute zero
/com,*********** Set Reference Temperature ***********
tref,22.
/wb,mat,start              !  starting to send materials
/com,*********** Send Materials ***********
MP,DENS,1,7.85e-09,	! tonne mm^-3
MP,ALPX,1,1.2e-05,	! C^-1
MP,C,1,434000000,	! mm^2 s^-2 C^-1
MP,KXX,1,60.5,	! tonne mm s^-3 C^-1
MP,RSVX,1,0.00017,	! ohm mm
MP,EX,1,200000,	! tonne s^-2 mm^-1
MP,NUXY,1,0.3,
MP,MURX,1,10000,

/wb,mat,end                !  done sending materials
!************************* Model Summary ********************
!Solid,	Structural Steel,	matid,	1
!************************* End Model Summary ********************
! get the diagonal of the bounding box. Needed later for other things
*get,_xmin,node,,mnloc,x
*get,_ymin,node,,mnloc,y
*get,_zmin,node,,mnloc,z
*get,_xmax,node,,mxloc,x
*get,_ymax,node,,mxloc,y
*get,_zmax,node,,mxloc,z
_ASMDIAG=(_xmax-_xmin)*(_xmax-_xmin)+(_ymax-_ymin)*(_ymax-_ymin)+(_zmax-_zmin)*(_zmax-_zmin)
_ASMDIAG=SQRT(_ASMDIAG)
/wb,contact,start          !  starting to send contact
/wb,contact,end            !  done creating contacts
/golist
/wb,load,start             !  starting to send loads
/com,*********** Fixed Supports ***********
CMBLOCK,_FIXEDSU,NODE,       45
(8i10)
        77        78        79        80        81        82        83        84
        85        86        87        88        89        90        91        92
        93        94       347       348       349       350       351       352
       353       354       355       356       357       358       359       360
       361       362       363       364       365       366       367       368
       369       370       371       372       375
cmsel,s,_FIXEDSU
d,all,all
nsel,all
/com,********* Frictionless Supports X *********
CMBLOCK,_FRICSUX,NODE,       48
(8i10)
        61        62        63        64        65        66       115       116
       117       118       119       120       121       122       123       124
       125       126       314       315       316       317       318       319
       320       321       322       323       324       326       373       374
       408       409       410       411       412       413       414       415
       416       417       418       419       420       421       422       423

cmsel,s,_FRICSUX
d,all,ux,0
nsel,all
nsel,all
/com,*********** Node Rotations ***********
nmod,61,,,,-43.6672749853753,0.,0.
nmod,62,,,,-43.6672749853753,0.,0.
nmod,63,,,,-43.6672749853753,0.,0.
nmod,64,,,,-43.6672749853753,0.,0.
nmod,65,,,,-43.6672749853753,0.,0.
nmod,66,,,,-43.6672749853753,0.,0.
nmod,115,,,,-43.6672749853753,0.,0.
nmod,116,,,,-43.6672749853753,0.,0.
nmod,117,,,,-43.6672749853753,0.,0.
nmod,118,,,,-43.6672749853753,0.,0.
nmod,119,,,,-43.6672749853753,0.,0.
nmod,120,,,,-43.6672749853753,0.,0.
nmod,121,,,,-43.6672749853753,0.,0.
nmod,122,,,,-43.6672749853753,0.,0.
nmod,123,,,,-43.6672749853753,0.,0.
nmod,124,,,,-43.6672749853753,0.,0.
nmod,125,,,,-43.6672749853753,0.,0.
nmod,126,,,,-43.6672749853753,0.,0.
nmod,314,,,,-43.6672749853753,0.,0.
nmod,315,,,,-43.6672749853753,0.,0.
! ... 28 like lines cut
/com,*********** Define Pressure Vector Using Surface Effect Elements ***********
local,12,0,0.,0.,0.,0.,0.,0.
csys,0
et,2,154
eblock,10,,,10
(15i9)
       61        2        2        2       12      116      107       67       66      398      328      325      326
       62        2        2        2       12      115      114      107      116      407      397      398      408
       63        2        2        2       12      107      108       68       67      396      330      327      328
       64        2        2        2       12      114      113      108      107      406      400      396      397
       65        2        2        2       12      108      109       69       68      399      332      329      330
       66        2        2        2       12      113      112      109      108      405      402      399      400
       67        2        2        2       12      109      110       70       69      401      334      331      332
       68        2        2        2       12      112      111      110      109      404      403      401      402
       69        2        2        2       12      110      106       71       70      395      336      333      334
       70        2        2        2       12      111      105      106      110      394      393      395      403
-1
esel,s,type,,2
keyop,2,2,1                ! Apply load in local coordinate system
keyop,2,11,2               ! Use real and not project area
esel,all

*DIM,_loadvari28x,TABLE,2,1,1,TIME,
! Time values
_loadvari28x(1,0,1) = 0.
_loadvari28x(2,0,1) = 1.
! Load values
_loadvari28x(1,1,1) = 0.
_loadvari28x(2,1,1) = -1.


*DIM,_loadvari28y,TABLE,2,1,1,TIME,
! Time values
_loadvari28y(1,0,1) = 0.
_loadvari28y(2,0,1) = 1.
! Load values
_loadvari28y(1,1,1) = 0.
_loadvari28y(2,1,1) = -1.


*DIM,_loadvari28z,TABLE,2,1,1,TIME,
! Time values
_loadvari28z(1,0,1) = 0.
_loadvari28z(2,0,1) = 1.
! Load values
_loadvari28z(1,1,1) = 0.
_loadvari28z(2,1,1) = 0.

/gst,on,on
fini
*get,_numnode,node,0,count
*get,_numelem,elem,0,count
*get, _MAXELEMNUM, elem, 0, NUM, MAX
*get, _MAXNODENUM, node, 0, NUM, MAX
*get, _MAXELEMTYPE, etyp, 0, NUM, MAX
*get, _MAXREALCONST, real, 0, NUM, MAX
/go
/wb,load,end               !  done creating loads
/com,--- Number of total nodes = %_numnode%
/com,--- Number of contact elements = 10
/com,--- Number of spring elements = 0
/com,--- Number of bearing elements = 0
/com,--- Number of solid elements = 60
/com,--- Number of total elements = %_numelem%
*get,_wallbsol,active,,time,wall
/com,****************************************************************************
/com,*************************    SOLUTION       ********************************
/com,****************************************************************************
/solu
antype,0                   ! static analysis
solc,on,on                 ! Turn on solution control with ability to use contact time prediction
eqsl,sparse,,,,,1
cntr,print,1               ! print out contact info and also make no initial contact an error
nldiag,cont,iter           ! print out contact info each equilibrium iteration
resc,,none                 ! Do not keep any restart files
/com,****************************************************
/com,******************* SOLVE FOR LS 1 ****************
esel,s,type,,2
nsle
sfe,all,1,pres,1,%_loadvari28x%
sfe,all,2,pres,1,%_loadvari28y%
sfe,all,3,pres,1,%_loadvari28z%
nsel,all
esel,all
/nopr
/gopr
nsub,1,1,1
time,1.
outres,erase
outres,all,none
outres,nsol,all
outres,rsol,all
outres,strs,all
outres,epel,all
outres,eppl,all
stabilize,off                   ! Stabilization turned OFF by user
! *********** WB SOLVE COMMAND ***********
! check interactive state
*get,ANSINTER_,active,,int
*if,ANSINTER_,ne,0,then
/eof
*endif
solve
/com *************** Write FE CONNECTORS ********* 
CEWRITE,file,ce,,INTE
/com,****************************************************
/com,*************** FINISHED SOLVE FOR LS 1 *************
*set,_DS_PROGRESS          ! turn off progress updates to avoid virus scanning bug
*get,_wallasol,active,,time,wall
/post1
xmlo,ENCODING,ISO-8859-1
xmlo,parm
/xml,parm,xml
fini
/gopr
*get,_walldone,active,,time,wall
_preptime=(_wallbsol-_wallstrt)*3600
_solvtime=(_wallasol-_wallbsol)*3600
_posttime=(_walldone-_wallasol)*3600
_totaltim=(_walldone-_wallstrt)*3600
/wb,file,end               ! done with WB generated input
